# generated by atomlib

_audit_creation_date          'Jan. 28, 2023'
_audit_creation_method        'Draft CIF file generated with Atomsk'
_chemical_formula_iupac       'Al2 N2'
_chemical_formula_moiety      'Al2 N2'
_chemical_formula_sum         'Al2 N2'
_chemical_formula_weight      81.97700000
_test_none_value              .
_test_bare_text               bar'etextwith"quotes
_test_multiline_text
;
This is a multiline string
With some
Line breaks
;

loop_
 _space_group_symop_operation_xyz
 +x,+y,+z

_cell_length_a                3.13000000
_cell_length_b                3.13000000
_cell_length_c                5.02000000
_cell_angle_alpha             90.00000000
_cell_angle_beta              90.00000000
_cell_angle_gamma             120.00000000
_cell_volume                  36.88530000

loop_
 _atom_site_type_symbol
 _atom_site_fract_x
 _atom_site_fract_y
 _atom_site_fract_z
 Al   0.66659200  0.33318300  0.49898400
 Al   0.33318300  0.66636600  0.99868100
 N    0.66659200  0.33318300  0.88017900
 N    0.33318300  0.66636600  0.38048200

